data_image0
_chemical_formula_structural       CoAsCoAs3
_chemical_formula_sum              "Co2 As4"
_cell_length_a       5.93593
_cell_length_b       3.48755
_cell_length_c       6.15777
_cell_angle_alpha    106.555
_cell_angle_beta     122.123
_cell_angle_gamma    73.0938

_space_group_name_H-M_alt    "P 1"
_space_group_IT_number       1

loop_
  _space_group_symop_operation_xyz
  'x, y, z'

loop_
  _atom_site_type_symbol
  _atom_site_label
  _atom_site_symmetry_multiplicity
  _atom_site_fract_x
  _atom_site_fract_y
  _atom_site_fract_z
  _atom_site_occupancy
  Co  Co1       1.0  0.95793  0.86677  0.12415  1.0000
  As  As1       1.0  0.21394  0.97727  0.59020  1.0000
  Co  Co2       1.0  0.74019  0.12009  0.41249  1.0000
  As  As2       1.0  0.65088  0.50061  0.08899  1.0000
  As  As3       1.0  0.27373  0.27974  0.26223  1.0000
  As  As4       1.0  0.81511  0.72493  0.69502  1.0000
