data_image0
_chemical_formula_structural       Co2As4
_chemical_formula_sum              "Co2 As4"
_cell_length_a       3.00192
_cell_length_b       4.32076
_cell_length_c       10.1392
_cell_angle_alpha    95.7565
_cell_angle_beta     96.439
_cell_angle_gamma    88.1179

_space_group_name_H-M_alt    "P 1"
_space_group_IT_number       1

loop_
  _space_group_symop_operation_xyz
  'x, y, z'

loop_
  _atom_site_type_symbol
  _atom_site_label
  _atom_site_symmetry_multiplicity
  _atom_site_fract_x
  _atom_site_fract_y
  _atom_site_fract_z
  _atom_site_occupancy
  Co  Co1       1.0  0.76257  0.53898  0.90767  1.0000
  Co  Co2       1.0  0.62114  0.40611  0.55933  1.0000
  As  As1       1.0  0.58127  0.89922  0.46494  1.0000
  As  As2       1.0  0.05657  0.47545  0.36803  1.0000
  As  As3       1.0  0.19476  0.37452  0.73797  1.0000
  As  As4       1.0  0.40274  0.03045  0.90574  1.0000
