data_image0
_chemical_formula_structural       SnCl3S3ClSnClLiSClLiSnLi2ClSnLiSSnClS2ClSClLiClSClSn
_chemical_formula_sum              "Sn6 Cl12 S9 Li6"
_cell_length_a       4.04028
_cell_length_b       14.366
_cell_length_c       18.5957
_cell_angle_alpha    62.8839
_cell_angle_beta     99.2754
_cell_angle_gamma    105.125

_space_group_name_H-M_alt    "P 1"
_space_group_IT_number       1

loop_
  _space_group_symop_operation_xyz
  'x, y, z'

loop_
  _atom_site_type_symbol
  _atom_site_label
  _atom_site_symmetry_multiplicity
  _atom_site_fract_x
  _atom_site_fract_y
  _atom_site_fract_z
  _atom_site_occupancy
  Sn  Sn1       1.0  0.47341  0.97107  0.04471  1.0000
  Cl  Cl1       1.0  0.92962  0.83556  0.00919  1.0000
  Cl  Cl2       1.0  0.85644  0.90042  0.78167  1.0000
  Cl  Cl3       1.0  0.52688  0.04811  0.89910  1.0000
  S   S1        1.0  0.34702  0.28894  0.67328  1.0000
  S   S2        1.0  0.95274  0.19736  0.62819  1.0000
  S   S3        1.0  0.82844  0.29864  0.50940  1.0000
  Cl  Cl4       1.0  0.50371  0.56781  0.49524  1.0000
  Sn  Sn2       1.0  0.49180  0.68792  0.33158  1.0000
  Cl  Cl5       1.0  0.88677  0.56475  0.27731  1.0000
  Li  Li1       1.0  0.92254  0.72714  0.15221  1.0000
  S   S4        1.0  0.51914  0.81439  0.17063  1.0000
  Cl  Cl6       1.0  0.23762  0.66981  0.94363  1.0000
  Li  Li2       1.0  0.66375  0.56633  0.97701  1.0000
  Sn  Sn3       1.0  0.48373  0.69304  0.77367  1.0000
  Li  Li3       1.0  0.23002  0.85358  0.90115  1.0000
  Li  Li4       1.0  0.25049  0.99375  0.68118  1.0000
  Cl  Cl7       1.0  0.51454  0.00495  0.57791  1.0000
  Sn  Sn4       1.0  0.21983  0.18278  0.47197  1.0000
  Li  Li5       1.0  0.15480  0.42156  0.27202  1.0000
  S   S5        1.0  0.59089  0.29058  0.33526  1.0000
  Sn  Sn5       1.0  0.39573  0.22969  0.22976  1.0000
  Cl  Cl8       1.0  0.10822  0.41984  0.14374  1.0000
  S   S6        1.0  0.13354  0.08519  0.05609  1.0000
  S   S7        1.0  0.17623  0.32045  0.75194  1.0000
  Cl  Cl9       1.0  0.60285  0.50627  0.87472  1.0000
  S   S8        1.0  0.89049  0.69918  0.66957  1.0000
  Cl  Cl10      1.0  0.07254  0.47525  0.69624  1.0000
  Li  Li6       1.0  0.08957  0.65165  0.50747  1.0000
  Cl  Cl11      1.0  0.76644  0.79049  0.54907  1.0000
  S   S9        1.0  0.83502  0.09209  0.27115  1.0000
  Cl  Cl12      1.0  0.14213  0.79484  0.36843  1.0000
  Sn  Sn6       1.0  0.70437  0.19508  0.11286  1.0000
