data_image0
_cell_length_a       5.79046
_cell_length_b       5.79169
_cell_length_c       3.38181
_cell_angle_alpha    90.0012
_cell_angle_beta     90.0006
_cell_angle_gamma    68.6588

_symmetry_space_group_name_H-M    "P 1"
_symmetry_int_tables_number       1

loop_
  _symmetry_equiv_pos_as_xyz
  'x, y, z'

loop_
  _atom_site_label
  _atom_site_occupancy
  _atom_site_fract_x
  _atom_site_fract_y
  _atom_site_fract_z
  _atom_site_thermal_displace_type
  _atom_site_B_iso_or_equiv
  _atom_site_type_symbol
  Sr1      1.0000 0.00537  0.99851  0.25700  Biso   1.000  Sr
  O1       1.0000 0.71752  0.71052  0.25700  Biso   1.000  O 
  O2       1.0000 0.31253  0.77082  0.75700  Biso   1.000  O 
  Ti1      1.0000 0.63439  0.62744  0.75700  Biso   1.000  Ti
  O3       1.0000 0.77769  0.30564  0.75700  Biso   1.000  O 
