data_image0
_cell_length_a       6.25417
_cell_length_b       6.5196
_cell_length_c       2.99642
_cell_angle_alpha    102.836
_cell_angle_beta     103.886
_cell_angle_gamma    57.1378

_symmetry_space_group_name_H-M    "P 1"
_symmetry_int_tables_number       1

loop_
  _symmetry_equiv_pos_as_xyz
  'x, y, z'

loop_
  _atom_site_label
  _atom_site_occupancy
  _atom_site_fract_x
  _atom_site_fract_y
  _atom_site_fract_z
  _atom_site_thermal_displace_type
  _atom_site_B_iso_or_equiv
  _atom_site_type_symbol
  O1       1.0000 0.50537  0.99851  0.25700  Biso   1.000  O 
  O2       1.0000 0.92301  0.60580  0.77638  Biso   1.000  O 
  Ti1      1.0000 0.58637  0.78013  0.69224  Biso   1.000  Ti
  Sr1      1.0000 0.27469  0.44978  0.37748  Biso   1.000  Sr
  O3       1.0000 0.48969  0.64254  0.07737  Biso   1.000  O 
