data_image0
_chemical_formula_structural       LiO2SiLiSiClOLiSiCl2SiClOLiClLiCl3LiO2SiClLiOSiOClLiOSiO2ClO2Si2ClLiOClOCl2
_chemical_formula_sum              "Li9 O15 Si9 Cl15"
_cell_length_a       3.02981
_cell_length_b       9.10244
_cell_length_c       34.8888
_cell_angle_alpha    88.5209
_cell_angle_beta     89.408
_cell_angle_gamma    85.0314

_space_group_name_H-M_alt    "P 1"
_space_group_IT_number       1

loop_
  _space_group_symop_operation_xyz
  'x, y, z'

loop_
  _atom_site_type_symbol
  _atom_site_label
  _atom_site_symmetry_multiplicity
  _atom_site_fract_x
  _atom_site_fract_y
  _atom_site_fract_z
  _atom_site_occupancy
  Li  Li1       1.0  0.48841  0.94293  0.01575  1.0000
  O   O1        1.0  0.54218  0.88871  0.93357  1.0000
  O   O2        1.0  0.38148  0.15575  0.01479  1.0000
  Si  Si1       1.0  0.22469  0.60450  0.74889  1.0000
  Li  Li2       1.0  0.28183  0.52235  0.01538  1.0000
  Si  Si2       1.0  0.86029  0.24151  0.00150  1.0000
  Cl  Cl1       1.0  0.11818  0.62960  0.90681  1.0000
  O   O3        1.0  0.74408  0.51717  0.81428  1.0000
  Li  Li3       1.0  0.58639  0.00431  0.79753  1.0000
  Si  Si3       1.0  0.05520  0.84778  0.91546  1.0000
  Cl  Cl2       1.0  0.30121  0.31541  0.85875  1.0000
  Cl  Cl3       1.0  0.03248  0.96729  0.86411  1.0000
  Si  Si4       1.0  0.26469  0.44241  0.80679  1.0000
  Cl  Cl4       1.0  0.24906  0.55230  0.63715  1.0000
  O   O4        1.0  0.72366  0.62056  0.72465  1.0000
  Li  Li4       1.0  0.76282  0.73503  0.66755  1.0000
  Cl  Cl5       1.0  0.14244  0.83585  0.77199  1.0000
  Li  Li5       1.0  0.78285  0.03420  0.62281  1.0000
  Cl  Cl6       1.0  0.30644  0.24407  0.77145  1.0000
  Cl  Cl7       1.0  0.26841  0.19490  0.59375  1.0000
  Cl  Cl8       1.0  0.30113  0.24559  0.49197  1.0000
  Li  Li6       1.0  0.77341  0.29188  0.54614  1.0000
  O   O5        1.0  0.74426  0.51098  0.56505  1.0000
  O   O6        1.0  0.17259  0.76282  0.56414  1.0000
  Si  Si5       1.0  0.22158  0.59567  0.57601  1.0000
  Cl  Cl9       1.0  0.24043  0.92460  0.66980  1.0000
  Li  Li7       1.0  0.78698  0.30929  0.44411  1.0000
  O   O7        1.0  0.74917  0.53099  0.44310  1.0000
  Si  Si6       1.0  0.22413  0.62580  0.44859  1.0000
  O   O8        1.0  0.19944  0.71254  0.48690  1.0000
  Cl  Cl10      1.0  0.19361  0.76165  0.39909  1.0000
  Li  Li8       1.0  0.83255  0.02602  0.30725  1.0000
  O   O9        1.0  0.77897  0.21078  0.38947  1.0000
  Si  Si7       1.0  0.28595  0.19398  0.36417  1.0000
  O   O10       1.0  0.32181  0.05649  0.33745  1.0000
  O   O11       1.0  0.25086  0.34260  0.33369  1.0000
  Cl  Cl11      1.0  0.22368  0.50956  0.35494  1.0000
  O   O12       1.0  0.13195  0.57380  0.22659  1.0000
  O   O13       1.0  0.59450  0.73042  0.17578  1.0000
  Si  Si8       1.0  0.62906  0.59404  0.20670  1.0000
  Si  Si9       1.0  0.57485  0.81937  0.13428  1.0000
  Cl  Cl12      1.0  0.84247  0.04846  0.24113  1.0000
  Li  Li9       1.0  0.68186  0.77013  0.51963  1.0000
  O   O14       1.0  0.81217  0.40669  0.01431  1.0000
  Cl  Cl13      1.0  0.87399  0.21510  0.94349  1.0000
  O   O15       1.0  0.08793  0.77797  0.11528  1.0000
  Cl  Cl14      1.0  0.03642  0.77104  0.01467  1.0000
  Cl  Cl15      1.0  0.51359  0.04095  0.13831  1.0000
