data_image0
_chemical_formula_structural       WB3YB
_chemical_formula_sum              "W1 B4 Y1"
_cell_length_a       3.16141
_cell_length_b       4.71238
_cell_length_c       4.71226
_cell_angle_alpha    70.3101
_cell_angle_beta     109.743
_cell_angle_gamma    109.743

_space_group_name_H-M_alt    "P 1"
_space_group_IT_number       1

loop_
  _space_group_symop_operation_xyz
  'x, y, z'

loop_
  _atom_site_type_symbol
  _atom_site_label
  _atom_site_symmetry_multiplicity
  _atom_site_fract_x
  _atom_site_fract_y
  _atom_site_fract_z
  _atom_site_occupancy
  W   W1        1.0  0.25746  0.24405  0.99655  1.0000
  B   B1        1.0  0.51015  0.83411  0.91148  1.0000
  B   B2        1.0  0.00404  0.65510  0.08129  1.0000
  B   B3        1.0  0.00454  0.32894  0.40628  1.0000
  Y   Y1        1.0  0.75737  0.74391  0.49652  1.0000
  B   B4        1.0  0.51074  0.15917  0.58547  1.0000
