data_image0
_chemical_formula_structural       Y7W7B28
_chemical_formula_sum              "Y7 W7 B28"
_cell_length_a       6.23125
_cell_length_b       10.4401
_cell_length_c       8.13557
_cell_angle_alpha    86.5082
_cell_angle_beta     97.2991
_cell_angle_gamma    78.8785

_space_group_name_H-M_alt    "P 1"
_space_group_IT_number       1

loop_
  _space_group_symop_operation_xyz
  'x, y, z'

loop_
  _atom_site_type_symbol
  _atom_site_label
  _atom_site_symmetry_multiplicity
  _atom_site_fract_x
  _atom_site_fract_y
  _atom_site_fract_z
  _atom_site_occupancy
  Y   Y1        1.0  0.50861  0.93959  0.47590  1.0000
  Y   Y2        1.0  0.94365  0.29520  0.98375  1.0000
  Y   Y3        1.0  0.56727  0.57196  0.77719  1.0000
  Y   Y4        1.0  0.59545  0.13063  0.82999  1.0000
  Y   Y5        1.0  0.34263  0.81857  0.06558  1.0000
  Y   Y6        1.0  0.94377  0.06874  0.31419  1.0000
  Y   Y7        1.0  0.00693  0.44317  0.40499  1.0000
  W   W1        1.0  0.92422  0.80153  0.77680  1.0000
  W   W2        1.0  0.15179  0.04708  0.76253  1.0000
  W   W3        1.0  0.05761  0.75384  0.43574  1.0000
  W   W4        1.0  0.41865  0.30045  0.12476  1.0000
  W   W5        1.0  0.11273  0.56114  0.94685  1.0000
  W   W6        1.0  0.59033  0.24647  0.47814  1.0000
  W   W7        1.0  0.46011  0.63742  0.39325  1.0000
  B   B1        1.0  0.15525  0.27595  0.70041  1.0000
  B   B2        1.0  0.78779  0.36111  0.66570  1.0000
  B   B3        1.0  0.23742  0.12776  0.17689  1.0000
  B   B4        1.0  0.91195  0.95272  0.02935  1.0000
  B   B5        1.0  0.09664  0.04875  0.03807  1.0000
  B   B6        1.0  0.83270  0.05888  0.60134  1.0000
  B   B7        1.0  0.58079  0.44762  0.52442  1.0000
  B   B8        1.0  0.85283  0.53165  0.07089  1.0000
  B   B9        1.0  0.77988  0.69271  0.99860  1.0000
  B   B10       1.0  0.40187  0.54650  0.14834  1.0000
  B   B11       1.0  0.74273  0.30459  0.26024  1.0000
  B   B12       1.0  0.28234  0.19745  0.34591  1.0000
  B   B13       1.0  0.72767  0.72610  0.32366  1.0000
  B   B14       1.0  0.76869  0.69494  0.54091  1.0000
  B   B15       1.0  0.02260  0.44226  0.72931  1.0000
  B   B16       1.0  0.00537  0.60698  0.66450  1.0000
  B   B17       1.0  0.26195  0.36509  0.86160  1.0000
  B   B18       1.0  0.16059  0.63795  0.21322  1.0000
  B   B19       1.0  0.63195  0.98083  0.09381  1.0000
  B   B20       1.0  0.89686  0.20307  0.66440  1.0000
  B   B21       1.0  0.79790  0.86163  0.22230  1.0000
  B   B22       1.0  0.36196  0.07089  0.02188  1.0000
  B   B23       1.0  0.65054  0.61930  0.15961  1.0000
  B   B24       1.0  0.54209  0.43240  0.31842  1.0000
  B   B25       1.0  0.68247  0.44586  0.13858  1.0000
  B   B26       1.0  0.73075  0.85763  0.97570  1.0000
  B   B27       1.0  0.04893  0.92034  0.58278  1.0000
  B   B28       1.0  0.28628  0.17911  0.56165  1.0000
