data_image0
_chemical_formula_structural       SCu2SCu2S2Cu2S3Cu6SCu2
_chemical_formula_sum              "S8 Cu14"
_cell_length_a       4.03483
_cell_length_b       10.1389
_cell_length_c       10.6677
_cell_angle_alpha    113.43
_cell_angle_beta     95.2178
_cell_angle_gamma    97.1056

_space_group_name_H-M_alt    "P 1"
_space_group_IT_number       1

loop_
  _space_group_symop_operation_xyz
  'x, y, z'

loop_
  _atom_site_type_symbol
  _atom_site_label
  _atom_site_symmetry_multiplicity
  _atom_site_fract_x
  _atom_site_fract_y
  _atom_site_fract_z
  _atom_site_occupancy
  S   S1        1.0  0.69195  0.02592  0.03995  1.0000
  Cu  Cu1       1.0  0.49012  0.72688  0.61835  1.0000
  Cu  Cu2       1.0  0.49899  0.59529  0.90463  1.0000
  S   S2        1.0  0.50191  0.09504  0.34074  1.0000
  Cu  Cu3       1.0  0.54486  0.04000  0.55159  1.0000
  Cu  Cu4       1.0  0.31418  0.62226  0.20134  1.0000
  S   S3        1.0  0.44045  0.77922  0.42147  1.0000
  S   S4        1.0  0.73566  0.24055  0.78330  1.0000
  Cu  Cu5       1.0  0.52501  0.22185  0.21092  1.0000
  Cu  Cu6       1.0  0.49370  0.30548  0.50632  1.0000
  S   S5        1.0  0.41906  0.51279  0.66017  1.0000
  S   S6        1.0  0.34998  0.37982  0.13366  1.0000
  S   S7        1.0  0.04995  0.65768  0.01453  1.0000
  Cu  Cu7       1.0  0.75146  0.48095  0.05611  1.0000
  Cu  Cu8       1.0  0.93563  0.47944  0.75388  1.0000
  Cu  Cu9       1.0  0.19867  0.23361  0.68150  1.0000
  Cu  Cu10      1.0  0.99054  0.86100  0.51728  1.0000
  Cu  Cu11      1.0  0.91464  0.03406  0.75795  1.0000
  Cu  Cu12      1.0  0.86358  0.22241  0.99841  1.0000
  S   S8        1.0  0.04292  0.82003  0.72739  1.0000
  Cu  Cu13      1.0  0.15270  0.96294  0.95511  1.0000
  Cu  Cu14      1.0  0.01426  0.07420  0.41914  1.0000
