data_image0
_chemical_formula_structural       Li2BrOLi2Cl
_chemical_formula_sum              "Li4 Br1 O1 Cl1"
_cell_length_a       3.88363
_cell_length_b       3.88569
_cell_length_c       7.23603
_cell_angle_alpha    74.9031
_cell_angle_beta     74.4772
_cell_angle_gamma    89.9858

_space_group_name_H-M_alt    "P 1"
_space_group_IT_number       1

loop_
  _space_group_symop_operation_xyz
  'x, y, z'

loop_
  _atom_site_type_symbol
  _atom_site_label
  _atom_site_symmetry_multiplicity
  _atom_site_fract_x
  _atom_site_fract_y
  _atom_site_fract_z
  _atom_site_occupancy
  Li  Li1       1.0  0.49924  0.08403  0.21880  1.0000
  Li  Li2       1.0  0.35547  0.44581  0.50812  1.0000
  Br  Br1       1.0  0.01784  0.60177  0.18188  1.0000
  O   O1        1.0  0.35818  0.94685  0.50229  1.0000
  Li  Li3       1.0  0.85467  0.94362  0.50969  1.0000
  Li  Li4       1.0  0.21863  0.82875  0.78538  1.0000
  Cl  Cl1       1.0  0.71331  0.29482  0.79086  1.0000
