data_image0
_chemical_formula_structural       Li2BrLi2OCl
_chemical_formula_sum              "Li4 Br1 O1 Cl1"
_cell_length_a       3.88074
_cell_length_b       3.88074
_cell_length_c       7.2587
_cell_angle_alpha    74.4953
_cell_angle_beta     74.4953
_cell_angle_gamma    90

_space_group_name_H-M_alt    "P 1"
_space_group_IT_number       1

loop_
  _space_group_symop_operation_xyz
  'x, y, z'

loop_
  _atom_site_type_symbol
  _atom_site_label
  _atom_site_symmetry_multiplicity
  _atom_site_fract_x
  _atom_site_fract_y
  _atom_site_fract_z
  _atom_site_occupancy
  Li  Li1       1.0  0.60927  0.50154  0.05495  1.0000
  Li  Li2       1.0  0.25403  0.64630  0.76542  1.0000
  Br  Br1       1.0  0.77161  0.16387  0.73027  1.0000
  Li  Li3       1.0  0.97102  0.36328  0.33145  1.0000
  Li  Li4       1.0  0.10927  0.00154  0.05495  1.0000
  O   O1        1.0  0.11230  0.50456  0.04889  1.0000
  Cl  Cl1       1.0  0.46736  0.85962  0.33877  1.0000
