data_image0
_chemical_formula_structural       Mn10
_chemical_formula_sum              "Mn10"
_cell_length_a       2.4791
_cell_length_b       2.47945
_cell_length_c       20.1884
_cell_angle_alpha    86.4723
_cell_angle_beta     82.9551
_cell_angle_gamma    59.863

_space_group_name_H-M_alt    "P 1"
_space_group_IT_number       1

loop_
  _space_group_symop_operation_xyz
  'x, y, z'

loop_
  _atom_site_type_symbol
  _atom_site_label
  _atom_site_symmetry_multiplicity
  _atom_site_fract_x
  _atom_site_fract_y
  _atom_site_fract_z
  _atom_site_occupancy
  Mn  Mn1       1.0  0.38305  0.84835  0.23581  1.0000
  Mn  Mn2       1.0  0.79020  0.18883  0.13504  1.0000
  Mn  Mn3       1.0  0.76696  0.52033  0.53564  1.0000
  Mn  Mn4       1.0  0.96815  0.50788  0.33552  1.0000
  Mn  Mn5       1.0  0.53367  0.53420  0.73550  1.0000
  Mn  Mn6       1.0  0.74164  0.87409  0.83588  1.0000
  Mn  Mn7       1.0  0.53752  0.18242  0.43626  1.0000
  Mn  Mn8       1.0  0.30612  0.53495  0.93540  1.0000
  Mn  Mn9       1.0  0.98033  0.86457  0.63592  1.0000
  Mn  Mn10      1.0  0.54013  0.86477  0.03566  1.0000
