data_image0
_chemical_formula_structural       OAlBAlO2FeO4FeO3AlBO4SiO4AlFBOSiAlOSiNaO3SiO5SiFeSiOAlO
_chemical_formula_sum              "O30 Al6 B3 Fe3 Si6 F1 Na1"
_cell_length_a       5.06675
_cell_length_b       9.77271
_cell_length_c       16.8107
_cell_angle_alpha    98.5332
_cell_angle_beta     102.563
_cell_angle_gamma    90.1697

_space_group_name_H-M_alt    "P 1"
_space_group_IT_number       1

loop_
  _space_group_symop_operation_xyz
  'x, y, z'

loop_
  _atom_site_type_symbol
  _atom_site_label
  _atom_site_symmetry_multiplicity
  _atom_site_fract_x
  _atom_site_fract_y
  _atom_site_fract_z
  _atom_site_occupancy
  O   O1        1.0  0.72358  0.05305  0.98302  1.0000
  Al  Al1       1.0  0.95713  0.95020  0.04337  1.0000
  B   B1        1.0  0.31032  0.06458  0.36026  1.0000
  Al  Al2       1.0  0.97285  0.16874  0.20806  1.0000
  O   O2        1.0  0.10193  0.08325  0.39627  1.0000
  O   O3        1.0  0.98902  0.95616  0.63935  1.0000
  Fe  Fe1       1.0  0.11586  0.14771  0.66451  1.0000
  O   O4        1.0  0.15110  0.15632  0.56682  1.0000
  O   O5        1.0  0.16150  0.91584  0.79700  1.0000
  O   O6        1.0  0.85820  0.20313  0.71728  1.0000
  O   O7        1.0  0.71707  0.24025  0.26405  1.0000
  Fe  Fe2       1.0  0.56417  0.23560  0.35510  1.0000
  O   O8        1.0  0.45017  0.28858  0.46323  1.0000
  O   O9        1.0  0.86947  0.33895  0.45173  1.0000
  O   O10       1.0  0.24781  0.23003  0.29146  1.0000
  Al  Al3       1.0  0.13524  0.22412  0.47632  1.0000
  B   B2        1.0  0.00317  0.33170  0.74423  1.0000
  O   O11       1.0  0.92727  0.44495  0.79052  1.0000
  O   O12       1.0  0.84937  0.27130  0.88756  1.0000
  O   O13       1.0  0.23501  0.32290  0.71261  1.0000
  O   O14       1.0  0.17500  0.28692  0.03997  1.0000
  Si  Si1       1.0  0.10516  0.40070  0.10866  1.0000
  O   O15       1.0  0.89995  0.32094  0.15525  1.0000
  O   O16       1.0  0.92970  0.53736  0.08561  1.0000
  O   O17       1.0  0.37179  0.46165  0.17948  1.0000
  O   O18       1.0  0.65819  0.53714  0.91950  1.0000
  Al  Al4       1.0  0.68476  0.40017  0.21970  1.0000
  F   F1        1.0  0.86887  0.54215  0.27634  1.0000
  B   B3        1.0  0.66236  0.38624  0.49150  1.0000
  O   O19       1.0  0.35604  0.58733  0.62780  1.0000
  Si  Si2       1.0  0.36084  0.71238  0.70099  1.0000
  Al  Al5       1.0  0.54980  0.58196  0.54956  1.0000
  O   O20       1.0  0.13651  0.52713  0.95422  1.0000
  Si  Si3       1.0  0.88664  0.43435  0.88442  1.0000
  Na  Na1       1.0  0.17936  0.66761  0.23307  1.0000
  O   O21       1.0  0.34463  0.64966  0.46630  1.0000
  O   O22       1.0  0.80136  0.72077  0.59296  1.0000
  O   O23       1.0  0.91965  0.77107  0.02824  1.0000
  Si  Si4       1.0  0.90540  0.60906  0.99952  1.0000
  O   O24       1.0  0.43589  0.94952  0.33696  1.0000
  O   O25       1.0  0.01195  0.01755  0.14860  1.0000
  O   O26       1.0  0.26073  0.81525  0.35329  1.0000
  O   O27       1.0  0.99203  0.84883  0.47905  1.0000
  O   O28       1.0  0.52222  0.91370  0.51361  1.0000
  Si  Si5       1.0  0.82455  0.86124  0.55109  1.0000
  Fe  Fe3       1.0  0.97323  0.83204  0.71638  1.0000
  Si  Si6       1.0  0.27866  0.80679  0.45334  1.0000
  O   O29       1.0  0.65172  0.78580  0.74404  1.0000
  Al  Al6       1.0  0.97271  0.16681  0.96208  1.0000
  O   O30       1.0  0.15216  0.01073  0.97481  1.0000
