data_image0
_chemical_formula_structural       O3SiFeOSiO2AlO2FeO3AlOBAl2O2SiOSiNaFeO3SiOFSiO4AlBO5BOAlO
_chemical_formula_sum              "O30 Si6 Fe3 Al6 B3 Na1 F1"
_cell_length_a       2.91064
_cell_length_b       11.6273
_cell_length_c       18.5346
_cell_angle_alpha    72.8461
_cell_angle_beta     82.2725
_cell_angle_gamma    85.7196

_space_group_name_H-M_alt    "P 1"
_space_group_IT_number       1

loop_
  _space_group_symop_operation_xyz
  'x, y, z'

loop_
  _atom_site_type_symbol
  _atom_site_label
  _atom_site_symmetry_multiplicity
  _atom_site_fract_x
  _atom_site_fract_y
  _atom_site_fract_z
  _atom_site_occupancy
  O   O1        1.0  0.77327  0.04916  0.97760  1.0000
  O   O2        1.0  0.24652  0.75659  0.98479  1.0000
  O   O3        1.0  0.72434  0.83076  0.09062  1.0000
  Si  Si1       1.0  0.70128  0.98067  0.06286  1.0000
  Fe  Fe1       1.0  0.02669  0.26025  0.15961  1.0000
  O   O4        1.0  0.15539  0.00996  0.10512  1.0000
  Si  Si2       1.0  0.04944  0.05595  0.20050  1.0000
  O   O5        1.0  0.55078  0.98160  0.22431  1.0000
  O   O6        1.0  0.44788  0.82270  0.48782  1.0000
  Al  Al1       1.0  0.15147  0.97526  0.47909  1.0000
  O   O7        1.0  0.60248  0.04450  0.50724  1.0000
  O   O8        1.0  0.90616  0.87343  0.59052  1.0000
  Fe  Fe2       1.0  0.59953  0.01628  0.62143  1.0000
  O   O9        1.0  0.08199  0.09909  0.61218  1.0000
  O   O10       1.0  0.54577  0.94660  0.71617  1.0000
  O   O11       1.0  0.52915  0.77413  0.85631  1.0000
  Al  Al2       1.0  0.49823  0.93009  0.81581  1.0000
  O   O12       1.0  0.95715  0.00215  0.83736  1.0000
  B   B1        1.0  0.37084  0.70629  0.92646  1.0000
  Al  Al3       1.0  0.26342  0.48376  0.14633  1.0000
  Al  Al4       1.0  0.27783  0.73868  0.07848  1.0000
  O   O13       1.0  0.16566  0.62938  0.17279  1.0000
  O   O14       1.0  0.59363  0.26431  0.66090  1.0000
  Si  Si3       1.0  0.12668  0.59720  0.26945  1.0000
  O   O15       1.0  0.58894  0.66488  0.28927  1.0000
  Si  Si4       1.0  0.52932  0.36690  0.49170  1.0000
  Na  Na1       1.0  0.02327  0.70719  0.44478  1.0000
  Fe  Fe3       1.0  0.43184  0.77543  0.59727  1.0000
  O   O16       1.0  0.44726  0.57953  0.63143  1.0000
  O   O17       1.0  0.33809  0.73006  0.70124  1.0000
  O   O18       1.0  0.85659  0.52854  0.76305  1.0000
  Si  Si5       1.0  0.37203  0.58458  0.72566  1.0000
  O   O19       1.0  0.32659  0.58120  0.94077  1.0000
  F   F1        1.0  0.70107  0.58465  0.07740  1.0000
  Si  Si6       1.0  0.33223  0.43831  0.98001  1.0000
  O   O20       1.0  0.24998  0.39617  0.07722  1.0000
  O   O21       1.0  0.73354  0.40599  0.20312  1.0000
  O   O22       1.0  0.94353  0.14829  0.25963  1.0000
  O   O23       1.0  0.11237  0.27363  0.33277  1.0000
  Al  Al5       1.0  0.58818  0.38267  0.31654  1.0000
  B   B2        1.0  0.09882  0.15364  0.32857  1.0000
  O   O24       1.0  0.18511  0.05083  0.37930  1.0000
  O   O25       1.0  0.57108  0.42785  0.40127  1.0000
  O   O26       1.0  0.46371  0.48064  0.53454  1.0000
  O   O27       1.0  0.02942  0.30035  0.51473  1.0000
  O   O28       1.0  0.58482  0.37666  0.67028  1.0000
  B   B3        1.0  0.49577  0.47554  0.60824  1.0000
  O   O29       1.0  0.36552  0.21081  0.85667  1.0000
  Al  Al6       1.0  0.87100  0.13348  0.87729  1.0000
  O   O30       1.0  0.86535  0.38469  0.96032  1.0000
