data_image0
_chemical_formula_structural       Si6Al6B3Fe2ONaO24FeO2FO3
_chemical_formula_sum              "Si6 Al6 B3 Fe3 O30 Na1 F1"
_cell_length_a       5.46991
_cell_length_b       9.62715
_cell_length_c       14.1471
_cell_angle_alpha    89.9535
_cell_angle_beta     95.9963
_cell_angle_gamma    106.239

_space_group_name_H-M_alt    "P 1"
_space_group_IT_number       1

loop_
  _space_group_symop_operation_xyz
  'x, y, z'

loop_
  _atom_site_type_symbol
  _atom_site_label
  _atom_site_symmetry_multiplicity
  _atom_site_fract_x
  _atom_site_fract_y
  _atom_site_fract_z
  _atom_site_occupancy
  Si  Si1       1.0  0.83924  0.32697  0.39943  1.0000
  Si  Si2       1.0  0.64551  0.92858  0.84744  1.0000
  Si  Si3       1.0  0.77776  0.50725  0.79496  1.0000
  Si  Si4       1.0  0.95938  0.59683  0.11199  1.0000
  Si  Si5       1.0  0.06921  0.13294  0.14924  1.0000
  Si  Si6       1.0  0.25040  0.40093  0.15257  1.0000
  Al  Al1       1.0  0.39167  0.05335  0.32231  1.0000
  Al  Al2       1.0  0.13995  0.13432  0.50248  1.0000
  Al  Al3       1.0  0.63280  0.31025  0.60813  1.0000
  Al  Al4       1.0  0.34581  0.64913  0.75758  1.0000
  Al  Al5       1.0  0.11525  0.77717  0.92408  1.0000
  Al  Al6       1.0  0.75057  0.85780  0.02832  1.0000
  B   B1        1.0  0.76202  0.22072  0.78546  1.0000
  B   B2        1.0  0.94623  0.59373  0.62143  1.0000
  B   B3        1.0  0.98285  0.62013  0.31199  1.0000
  Fe  Fe1       1.0  0.04210  0.82089  0.49246  1.0000
  Fe  Fe2       1.0  0.66600  0.35908  0.21324  1.0000
  O   O1        1.0  0.57058  0.92685  0.34462  1.0000
  Na  Na1       1.0  0.56253  0.72409  0.26880  1.0000
  O   O2        1.0  0.05238  0.24181  0.41334  1.0000
  O   O3        1.0  0.14486  0.03557  0.23253  1.0000
  O   O4        1.0  0.49612  0.83439  0.75599  1.0000
  O   O5        1.0  0.89598  0.03609  0.06271  1.0000
  O   O6        1.0  0.71550  0.10084  0.84289  1.0000
  O   O7        1.0  0.34944  0.82138  0.53584  1.0000
  O   O8        1.0  0.74624  0.49435  0.67482  1.0000
  O   O9        1.0  0.54770  0.56475  0.82429  1.0000
  O   O10       1.0  0.06166  0.63484  0.83222  1.0000
  O   O11       1.0  0.77873  0.21430  0.69211  1.0000
  O   O12       1.0  0.68245  0.48402  0.10493  1.0000
  O   O13       1.0  0.96714  0.71952  0.37411  1.0000
  O   O14       1.0  0.89624  0.88205  0.90033  1.0000
  O   O15       1.0  0.18442  0.58356  0.64938  1.0000
  O   O16       1.0  0.75504  0.36328  0.49998  1.0000
  O   O17       1.0  0.89277  0.96462  0.52302  1.0000
  O   O18       1.0  0.78765  0.35195  0.83577  1.0000
  O   O19       1.0  0.31221  0.22982  0.59996  1.0000
  O   O20       1.0  0.96155  0.27761  0.17515  1.0000
  O   O21       1.0  0.17134  0.51751  0.08043  1.0000
  O   O22       1.0  0.97257  0.73155  0.03416  1.0000
  O   O23       1.0  0.45695  0.86392  0.93823  1.0000
  O   O24       1.0  0.60151  0.23223  0.32113  1.0000
  O   O25       1.0  0.34236  0.25499  0.11864  1.0000
  Fe  Fe3       1.0  0.56737  0.93316  0.47254  1.0000
  O   O26       1.0  0.05423  0.66635  0.22110  1.0000
  O   O27       1.0  0.30135  0.02912  0.44002  1.0000
  F   F1        1.0  0.57570  0.77809  0.11670  1.0000
  O   O28       1.0  0.91912  0.46786  0.32368  1.0000
  O   O29       1.0  0.85445  0.67979  0.56331  1.0000
  O   O30       1.0  0.43218  0.46351  0.24926  1.0000
