data_image0
_chemical_formula_structural       Si6Al6B3Fe3NaO30F
_chemical_formula_sum              "Si6 Al6 B3 Fe3 Na1 O30 F1"
_cell_length_a       5.81798
_cell_length_b       7.62242
_cell_length_c       17.9247
_cell_angle_alpha    91.2354
_cell_angle_beta     98.8489
_cell_angle_gamma    112.778

_space_group_name_H-M_alt    "P 1"
_space_group_IT_number       1

loop_
  _space_group_symop_operation_xyz
  'x, y, z'

loop_
  _atom_site_type_symbol
  _atom_site_label
  _atom_site_symmetry_multiplicity
  _atom_site_fract_x
  _atom_site_fract_y
  _atom_site_fract_z
  _atom_site_occupancy
  Si  Si1       1.0  0.68397  0.68497  0.63958  1.0000
  Si  Si2       1.0  0.73870  0.84275  0.13284  1.0000
  Si  Si3       1.0  0.27715  0.47163  0.19441  1.0000
  Si  Si4       1.0  0.58567  0.08995  0.76208  1.0000
  Si  Si5       1.0  0.40806  0.73487  0.84234  1.0000
  Si  Si6       1.0  0.09924  0.73198  0.69265  1.0000
  Al  Al1       1.0  0.24115  0.41946  0.59950  1.0000
  Al  Al2       1.0  0.20551  0.13015  0.46772  1.0000
  Al  Al3       1.0  0.45436  0.20927  0.30893  1.0000
  Al  Al4       1.0  0.76010  0.46674  0.07009  1.0000
  Al  Al5       1.0  0.77880  0.53223  0.82711  1.0000
  Al  Al6       1.0  0.30577  0.58921  0.01223  1.0000
  B   B1        1.0  0.81221  0.14134  0.06801  1.0000
  B   B2        1.0  0.51250  0.84863  0.25674  1.0000
  B   B3        1.0  0.88766  0.07928  0.66524  1.0000
  Fe  Fe1       1.0  0.86868  0.11609  0.34000  1.0000
  Fe  Fe2       1.0  0.39332  0.93063  0.57624  1.0000
  Fe  Fe3       1.0  0.94263  0.08994  0.92361  1.0000
  Na  Na1       1.0  0.31239  0.03267  0.02488  1.0000
  O   O1        1.0  0.06896  0.22177  0.64306  1.0000
  O   O2        1.0  0.77292  0.13547  0.98929  1.0000
  O   O3        1.0  0.82556  0.66639  0.13756  1.0000
  O   O4        1.0  0.10347  0.65990  0.78242  1.0000
  O   O5        1.0  0.72315  0.91340  0.22170  1.0000
  O   O6        1.0  0.15280  0.60840  0.62730  1.0000
  O   O7        1.0  0.48044  0.98077  0.30183  1.0000
  O   O8        1.0  0.93782  0.87638  0.91756  1.0000
  O   O9        1.0  0.34488  0.30721  0.22941  1.0000
  O   O10       1.0  0.22700  0.17672  0.36728  1.0000
  O   O11       1.0  0.68685  0.22896  0.10232  1.0000
  O   O12       1.0  0.86014  0.03153  0.42620  1.0000
  O   O13       1.0  0.95912  0.54711  0.99157  1.0000
  O   O14       1.0  0.12967  0.46978  0.11383  1.0000
  O   O15       1.0  0.94338  0.03649  0.10392  1.0000
  O   O16       1.0  0.79362  0.31731  0.33413  1.0000
  O   O17       1.0  0.35610  0.65821  0.25217  1.0000
  O   O18       1.0  0.46656  0.79915  0.07871  1.0000
  O   O19       1.0  0.51370  0.96889  0.83495  1.0000
  O   O20       1.0  0.17410  0.26404  0.90339  1.0000
  O   O21       1.0  0.83081  0.45358  0.91647  1.0000
  O   O22       1.0  0.35733  0.69192  0.92421  1.0000
  O   O23       1.0  0.56720  0.64380  0.79790  1.0000
  O   O24       1.0  0.83501  0.06905  0.73781  1.0000
  O   O25       1.0  0.63256  0.31041  0.77029  1.0000
  O   O26       1.0  0.71342  0.90482  0.61648  1.0000
  O   O27       1.0  0.28943  0.35353  0.51524  1.0000
  O   O28       1.0  0.45736  0.43415  0.02354  1.0000
  O   O29       1.0  0.33769  0.94885  0.69271  1.0000
  O   O30       1.0  0.48421  0.06599  0.50386  1.0000
  F   F1        1.0  0.07747  0.92933  0.53716  1.0000
