data_image0
_chemical_formula_structural       OPbO3AsPbAsOPbO2PbAsOPbO4Cl
_chemical_formula_sum              "O12 Pb5 As3 Cl1"
_cell_length_a       3.95059
_cell_length_b       6.49203
_cell_length_c       19.0107
_cell_angle_alpha    68.0635
_cell_angle_beta     91.553
_cell_angle_gamma    75.9148

_space_group_name_H-M_alt    "P 1"
_space_group_IT_number       1

loop_
  _space_group_symop_operation_xyz
  'x, y, z'

loop_
  _atom_site_type_symbol
  _atom_site_label
  _atom_site_symmetry_multiplicity
  _atom_site_fract_x
  _atom_site_fract_y
  _atom_site_fract_z
  _atom_site_occupancy
  O   O1        1.0  0.93887  0.95704  0.11148  1.0000
  Pb  Pb1       1.0  0.40253  0.99706  0.01855  1.0000
  O   O2        1.0  0.08340  0.38124  0.02969  1.0000
  O   O3        1.0  0.41076  0.53445  0.36284  1.0000
  O   O4        1.0  0.98714  0.54030  0.23027  1.0000
  As  As1       1.0  0.99714  0.81998  0.20942  1.0000
  Pb  Pb2       1.0  0.51437  0.26040  0.31803  1.0000
  As  As2       1.0  0.07093  0.98567  0.50455  1.0000
  O   O5        1.0  0.18163  0.07199  0.40723  1.0000
  Pb  Pb3       1.0  0.86919  0.61398  0.41269  1.0000
  O   O6        1.0  0.94185  0.26610  0.51331  1.0000
  O   O7        1.0  0.44658  0.87876  0.57481  1.0000
  Pb  Pb4       1.0  0.47539  0.19378  0.61163  1.0000
  As  As3       1.0  0.98488  0.97585  0.77493  1.0000
  O   O8        1.0  0.88172  0.84940  0.70487  1.0000
  Pb  Pb5       1.0  0.51585  0.58663  0.73253  1.0000
  O   O9        1.0  0.05206  0.22642  0.69932  1.0000
  O   O10       1.0  0.40123  0.78502  0.81306  1.0000
  O   O11       1.0  0.09850  0.58209  0.97659  1.0000
  O   O12       1.0  0.01115  0.75814  0.00241  1.0000
  Cl  Cl1       1.0  0.25210  0.26016  0.86685  1.0000
