data_image0
_chemical_formula_structural       TiO3CaTiO2CaOCaO
_chemical_formula_sum              "Ti2 O7 Ca3"
_cell_length_a       3.80447
_cell_length_b       3.70135
_cell_length_c       12.6319
_cell_angle_alpha    81.5754
_cell_angle_beta     90
_cell_angle_gamma    90

_space_group_name_H-M_alt    "P 1"
_space_group_IT_number       1

loop_
  _space_group_symop_operation_xyz
  'x, y, z'

loop_
  _atom_site_type_symbol
  _atom_site_label
  _atom_site_symmetry_multiplicity
  _atom_site_fract_x
  _atom_site_fract_y
  _atom_site_fract_z
  _atom_site_occupancy
  Ti  Ti1       1.0  0.97514  0.71007  0.64748  1.0000
  O   O1        1.0  0.97514  0.23341  0.60081  1.0000
  O   O2        1.0  0.47514  0.73185  0.60392  1.0000
  O   O3        1.0  0.97514  0.82490  0.41783  1.0000
  Ca  Ca1       1.0  0.47514  0.28810  0.49143  1.0000
  Ti  Ti2       1.0  0.97514  0.89633  0.27496  1.0000
  O   O4        1.0  0.47514  0.91266  0.24231  1.0000
  O   O5        1.0  0.47514  0.03611  0.99540  1.0000
  Ca  Ca2       1.0  0.47514  0.47762  0.11239  1.0000
  O   O6        1.0  0.97514  0.42643  0.21476  1.0000
  Ca  Ca3       1.0  0.97514  0.08661  0.89440  1.0000
  O   O7        1.0  0.97514  0.63803  0.79156  1.0000
