data_image0
_chemical_formula_structural       TiO3CaOCaTiOCaO2TiO3CaOCaTiO2CaOTiO3CaOCaTiO2CaOTiO3CaOCaTiO2CaO
_chemical_formula_sum              "Ti8 O28 Ca12"
_cell_length_a       5.49417
_cell_length_b       5.50409
_cell_length_c       19.5745
_cell_angle_alpha    89.9494
_cell_angle_beta     89.3144
_cell_angle_gamma    90.1276

_space_group_name_H-M_alt    "P 1"
_space_group_IT_number       1

loop_
  _space_group_symop_operation_xyz
  'x, y, z'

loop_
  _atom_site_type_symbol
  _atom_site_label
  _atom_site_symmetry_multiplicity
  _atom_site_fract_x
  _atom_site_fract_y
  _atom_site_fract_z
  _atom_site_occupancy
  Ti  Ti1       1.0  0.48087  0.48866  0.89972  1.0000
  O   O1        1.0  0.28514  0.77934  0.90747  1.0000
  O   O2        1.0  0.20988  0.27398  0.88369  1.0000
  O   O3        1.0  0.52921  0.54624  0.80166  1.0000
  Ca  Ca1       1.0  0.96150  0.50444  0.81292  1.0000
  O   O4        1.0  0.96586  0.42761  0.69729  1.0000
  Ca  Ca2       1.0  0.52315  0.47629  0.68630  1.0000
  Ti  Ti2       1.0  0.00239  0.48818  0.59949  1.0000
  O   O5        1.0  0.19546  0.20229  0.58487  1.0000
  Ca  Ca3       1.0  0.99517  0.48121  0.00159  1.0000
  O   O6        1.0  0.45256  0.43032  0.99963  1.0000
  O   O7        1.0  0.27685  0.69914  0.61082  1.0000
  Ti  Ti3       1.0  0.97468  0.48904  0.39986  1.0000
  O   O8        1.0  0.28185  0.27802  0.41443  1.0000
  O   O9        1.0  0.20097  0.78088  0.38834  1.0000
  O   O10       1.0  0.01712  0.42739  0.30163  1.0000
  Ca  Ca4       1.0  0.45287  0.47705  0.31268  1.0000
  O   O11       1.0  0.49540  0.54957  0.19778  1.0000
  Ca  Ca5       1.0  0.98830  0.50261  0.18657  1.0000
  Ti  Ti4       1.0  0.49128  0.49411  0.09960  1.0000
  O   O12       1.0  0.18997  0.70006  0.09161  1.0000
  O   O13       1.0  0.98886  0.55725  0.49948  1.0000
  Ca  Ca6       1.0  0.48663  0.49603  0.49989  1.0000
  O   O14       1.0  0.26530  0.20566  0.11574  1.0000
  Ti  Ti5       1.0  0.98510  0.98600  0.89973  1.0000
  O   O15       1.0  0.70625  0.20076  0.89619  1.0000
  O   O16       1.0  0.78355  0.70040  0.91694  1.0000
  O   O17       1.0  0.97815  0.93094  0.80149  1.0000
  Ca  Ca7       1.0  0.48989  0.97668  0.81270  1.0000
  O   O18       1.0  0.45985  0.05230  0.69767  1.0000
  Ca  Ca8       1.0  0.02421  0.00354  0.68664  1.0000
  Ti  Ti6       1.0  0.50254  0.99116  0.59938  1.0000
  O   O19       1.0  0.77695  0.78287  0.61110  1.0000
  O   O20       1.0  0.02252  0.04919  0.99971  1.0000
  Ca  Ca9       1.0  0.48144  0.99834  0.99755  1.0000
  O   O21       1.0  0.69460  0.28029  0.58553  1.0000
  Ti  Ti7       1.0  0.47487  0.99231  0.39974  1.0000
  O   O22       1.0  0.70089  0.69794  0.38809  1.0000
  O   O23       1.0  0.78264  0.20027  0.41380  1.0000
  O   O24       1.0  0.51161  0.05313  0.30200  1.0000
  Ca  Ca10      1.0  0.95384  0.00358  0.31297  1.0000
  O   O25       1.0  0.94683  0.93257  0.19766  1.0000
  Ca  Ca11      1.0  0.51516  0.97593  0.18637  1.0000
  Ti  Ti8       1.0  0.99557  0.99081  0.09967  1.0000
  O   O26       1.0  0.76881  0.27853  0.10343  1.0000
  O   O27       1.0  0.48882  0.92318  0.49978  1.0000
  Ca  Ca12      1.0  0.99001  0.98436  0.49945  1.0000
  O   O28       1.0  0.69160  0.77920  0.08236  1.0000
